*HEADING
Linear Elastic Diamond 2 TPMS.
1000 mm cell size, 212.532 mm shell thickness, Youngs modulus: 180.000 (GPa), Poisson ratio: 0.300 (GPa)
S.I. Units (meters, Newtons, sec, kilograms)
**
*NODE
1,  0.25000000,  0.00000000,  0.50000000
**
** NODES OMITTED FOR SIMPLICITY
**
999011,    0,  0,  0
999022,    0,  0,  0
999033,    0,  0,  0
999023,    0,  0,  0
999013,    0,  0,  0
999012,    0,  0,  0
**
*NSET, NSET=DUMMY
999011,999022,999033,999023,999013,999012
**
*NSET, NSET=MIDDLE
7
**
*NSET, NSET=XLface, UNSORTED
2419,4783,2642,4199,2482,4782,2679,4051,2438,4781,2722,
4198,2501,4780,2760,4013,2422,4779,2803,4197,2522,4778,
2846,4050,2448,4777,2873,4196,2539,4776,2905,3201,1619,
4000,2117,3408,1747,3999,2083,3256,1650,3998,2056,3407,
1726,3997,2011,3216,1627,3996,1968,3406,1705,3995,1930,
3255,1640,3994,1887,3405,1686,3993,1850,1620
**
*NSET, NSET=XUface, UNSORTED
818,5774,1617,5622,1025,5811,1616,5582,873,5854,1615,
5641,1024,5892,1614,5568,833,5935,1613,5662,1023,5978,
1612,5592,872,6005,1611,5679,1022,6037,1610,4785,3,
5266,817,4904,217,5232,816,4811,61,5205,815,4883,
216,5160,814,4790,19,5117,813,4862,215,5079,812,
4801,60,5036,811,4843,214,4999,810,2
**
*NSET, NSET=YLface, UNSORTED
4002,4225,6332,4065,5756,4262,6331,4021,5612,4305,6330,
4084,5755,4343,6329,4005,5576,4386,6328,4105,5754,4429,
6327,4031,5611,4456,6326,4122,5753,4488,6325,3202,4784,
3700,5566,3330,4982,3666,5565,3233,4834,3639,5564,3309,
4981,3594,5563,3210,4796,3551,5562,3288,4980,3513,5561,
3223,4833,3470,5560,3269,4979,3433,5559,3203
**
*NSET, NSET=YUface, UNSORTED
821,3200,1051,2616,887,3199,1088,2468,841,3198,1131,
2615,906,3197,1169,2430,824,3196,1212,2614,927,3195,
1255,2467,851,3194,1282,2613,944,3193,1314,1618,4,
2417,509,1825,135,2416,475,1673,36,2415,448,1824,
114,2414,403,1633,12,2413,360,1823,93,2412,322,
1672,26,2411,279,1822,74,2410,242,5
**
*NSET, NSET=ZLface, UNSORTED
4001,4224,6040,4064,5682,4261,6006,4020,5591,4304,5979,
4083,5661,4342,5934,4008,5571,4385,5891,4104,5640,4430,
5853,4030,5581,4457,5810,4125,5621,4491,5773,2418,819,
2641,1317,2481,947,2678,1283,2437,850,2721,1256,2500,
926,2759,1211,2425,827,2802,1168,2521,905,2847,1130,
2447,840,2874,1087,2542,886,2908,1050,820
**
*NSET, NSET=ZUface, UNSORTED
3204,3434,5263,3270,4901,3471,5231,3224,4812,3514,5204,
3289,4884,3552,5161,3207,4787,3595,5118,3310,4863,3638,
5080,3234,4802,3665,5037,3327,4844,3697,5000,1621,1,
1851,506,1687,132,1888,474,1641,37,1931,447,1706,
115,1969,404,1624,9,2012,361,1727,94,2055,323,
1651,27,2082,280,1744,75,2114,243,6
**
*ELEMENT, TYPE=S3, ELSET=EALL
1,  1,  528,  510
**
**ELEMENTS OMITTED FOR SIMPLICITY
**
** FACES
**
*EQUATION
5
XLface, 1, -1, XUface, 1, 1, 999011, 1, -1, 999012, 1, 0, 
999013, 1, 0
*EQUATION
5
XLface, 2, -1, XUface, 2, 1, 999012, 1, -0.5, 999022, 1, 0, 
999023, 1, 0
*EQUATION
5
XLface, 3, -1, XUface, 3, 1, 999013, 1, -0.5, 999023, 1, 0, 
999033, 1, 0
**
*EQUATION
2
XLface, 4, -1, XUface, 4, 1
*EQUATION
2
XLface, 5, -1, XUface, 5, 1
*EQUATION
2
XLface, 6, -1, XUface, 6, 1
**
*EQUATION
5
YLface, 1, -1, YUface, 1, 1, 999011, 1, 0, 999012, 1, -0.5, 
999013, 1, 0
*EQUATION
5
YLface, 2, -1, YUface, 2, 1, 999012, 1, 0, 999022, 1, -1, 
999023, 1, 0
*EQUATION
5
YLface, 3, -1, YUface, 3, 1, 999013, 1, 0, 999023, 1, -0.5, 
999033, 1, 0
**
*EQUATION
2
YLface, 4, -1, YUface, 4, 1
*EQUATION
2
YLface, 5, -1, YUface, 5, 1
*EQUATION
2
YLface, 6, -1, YUface, 6, 1
**
*EQUATION
5
ZLface, 1, -1, ZUface, 1, 1, 999011, 1, 0, 999012, 1, 0, 
999013, 1, -0.5
*EQUATION
5
ZLface, 2, -1, ZUface, 2, 1, 999012, 1, 0, 999022, 1, 0, 
999023, 1, -0.5
*EQUATION
5
ZLface, 3, -1, ZUface, 3, 1, 999013, 1, 0, 999023, 1, 0, 
999033, 1, -1
**
*EQUATION
2
ZLface, 4, -1, ZUface, 4, 1
*EQUATION
2
ZLface, 5, -1, ZUface, 5, 1
*EQUATION
2
ZLface, 6, -1, ZUface, 6, 1
**
**
*SHELL GENERAL SECTION,ELSET=EALL,MATERIAL=MAT1
212.5324e-03
*MATERIAL, NAME=MAT1
*ELASTIC
180e09, 0.3
**
*BOUNDARY
MIDDLE, 1, 3, 0.0
**
*Step, perturbation, name=Step-1, nlgeom=NO 
*Static
1., 1., 1e-05, 1.
**
*Load case, name=11only
*BOUNDARY
999011, 1, 1, 1
999022, 1, 1, 0
999033, 1, 1, 0
999023, 1, 1, 0
999013, 1, 1, 0
999012, 1, 1, 0
*End load case
*Load case, name=22only
*BOUNDARY
999011, 1, 1, 0
999022, 1, 1, 1
999033, 1, 1, 0
999023, 1, 1, 0
999013, 1, 1, 0
999012, 1, 1, 0
*End load case
*Load case, name=33only
*BOUNDARY
999011, 1, 1, 0
999022, 1, 1, 0
999033, 1, 1, 1
999023, 1, 1, 0
999013, 1, 1, 0
999012, 1, 1, 0
*End load case
*Load case, name=shear23onlytensor
*BOUNDARY
999011, 1, 1, 0
999022, 1, 1, 0
999033, 1, 1, 0
999023, 1, 1, 1
999013, 1, 1, 0
999012, 1, 1, 0
*End load case
*Load case, name=shear13onlytensor
*BOUNDARY
999011, 1, 1, 0
999022, 1, 1, 0
999033, 1, 1, 0
999023, 1, 1, 0
999013, 1, 1, 1
999012, 1, 1, 0
*End load case
*Load case, name=shear12onlytensor
*BOUNDARY
999011, 1, 1, 0
999022, 1, 1, 0
999033, 1, 1, 0
999023, 1, 1, 0
999013, 1, 1, 0
999012, 1, 1, 1
*End load case
**
*Restart, write, frequency=0
*Output, field, variable=PRESELECT
*Output, history, variable=PRESELECT
*El Print, freq=999999
*Node Print, NSET=DUMMY, freq=1
U1, U2, U3, RF1, RF2, RF3, CF1, CF2, CF3

**
*END STEP